Version 4
SHEET 1 1124 680
TEXT 336 144 Left 2 !.include 90nm_bulk.txt
