Version 4
SHEET 1 880 680
WIRE 96 48 -96 48
WIRE -96 96 -96 48
WIRE 96 144 96 48
WIRE -96 240 -96 176
WIRE -96 368 -96 304
WIRE 0 368 -96 368
WIRE 96 368 96 224
WIRE 96 368 0 368
FLAG 0 368 0
SYMBOL voltage 96 128 R0
WINDOW 123 0 0 Left 0
WINDOW 39 0 0 Left 0
SYMATTR InstName V1
SYMATTR Value PULSE(-6 6 0 0.001m 0.001m 20m 40m)
SYMBOL res -112 80 R0
SYMATTR InstName R1
SYMATTR Value 160
SYMBOL cap -112 240 R0
SYMATTR InstName C1
SYMATTR Value 25µ
TEXT -114 392 Left 2 !.tran 0 40m 0 0.1m
